31
Comment line
Zn   35.810  46.230  16.940 
O    16.020  27.110  3.610  
H    17.020  27.060  3.540  
H    15.670  27.790  2.960  
O    37.560  32.910  20.550 
H    38.120  33.440  21.190 
H    36.870  32.390  21.060 
O    12.760  39.520  7.610  
H    13.240  40.370  7.820  
H    11.790  39.710  7.470  
O    22.520  9.110   44.250 
H    23.350  9.440   43.800 
H    22.770  8.440   44.950 
O    3.360   20.080  40.100 
H    3.560   19.100  40.010 
H    2.410   20.260  39.850 
O    45.520  1.780   38.390 
H    46.360  1.920   37.870 
H    45.530  2.360   39.210 
O    16.130  31.610  21.430 
H    17.000  32.020  21.710 
H    15.810  32.040  20.580 
O    21.070  15.030  43.940 
H    20.500  15.850  43.940 
H    22.030  15.290  43.870 
O    27.740  42.820  45.620 
H    28.630  43.210  45.410 
H    27.210  43.470  46.160 
O    39.720  29.770  8.080  
H    40.700  29.810  7.900  
H    39.290  30.610  7.760  
31
Comment line
Zn   37.570  45.700  17.790 
O    10.740  27.520  0.250  
H    9.850   27.820  49.890 
H    10.600  26.830  0.960  
O    40.470  36.740  22.960 
H    40.960  36.300  23.720 
H    40.880  36.450  22.090 
O    15.650  41.580  10.540 
H    15.130  40.760  10.310 
H    15.030  42.360  10.610 
O    25.470  3.090   42.730 
H    25.030  3.860   43.180 
H    24.960  2.850   41.900 
O    5.880   16.660  40.400 
H    6.790   16.810  40.790 
H    5.780   15.700  40.140 
O    38.060  49.430  37.820 
H    38.440  49.720  38.700 
H    38.750  48.880  37.330 
O    15.180  36.390  18.650 
H    15.980  36.990  18.720 
H    14.440  36.880  18.180 
O    18.230  13.850  42.020 
H    18.580  13.260  42.750 
H    18.790  14.680  41.980 
O    28.000  46.560  47.480 
H    28.560  47.330  47.160 
H    28.430  46.140  48.270 
O    38.470  29.940  7.560  
H    37.870  30.470  8.160  
H    38.940  30.560  6.930  
