30

O   3.17184   0.87982   3.83429
H   2.78990   0.20623   4.45155
H   3.01564   1.74709   4.28599
O   1.74876   4.94349   4.16422
H   0.85900   5.33307   4.35699
H   1.88102   4.26434   4.87264
O   1.89567   3.82631   1.70374
H   1.48729   4.18280   0.87503
H   1.41707   4.29063   2.43582
O   1.22744   0.97580   1.54805
H   1.45118   0.84783   0.59192
H   0.30876   0.61728   1.63803
O   4.87651   3.26762   3.32870
H   4.84721   4.04399   3.94271
H   3.99229   2.83444   3.43408
O   0.47793   2.01302   3.38765
H   0.21178   1.28408   4.00280
H   1.00539   2.63321   3.95134
O   4.50063   4.41778   0.70520
H   4.14388   5.31058   0.46801
H   4.42439   4.37416   1.69155
O   0.38032   3.06588   0.81415
H   0.57589   2.46437   1.57609
H   0.98912   2.76132   0.09499
O   4.63701   1.65715   0.81288
H   4.46196   2.56219   0.45111
H   5.42367   1.77369   1.40294
O   2.66401   1.92638   0.60230
H   2.63376   2.40384   1.46933
H   3.22289   1.12804   0.77805